Version 4
SHEET 1 880 680
WIRE 352 -32 112 -32
WIRE 560 -32 352 -32
WIRE 112 64 112 -32
WIRE 352 128 352 -32
WIRE 352 160 352 128
WIRE 560 160 560 -32
WIRE -16 208 -48 208
WIRE 112 208 112 144
WIRE 112 208 48 208
WIRE 240 208 112 208
WIRE 288 208 240 208
WIRE -48 272 -48 208
WIRE 352 272 352 256
WIRE 368 272 352 272
WIRE 400 272 368 272
WIRE 112 288 112 208
WIRE 352 288 352 272
WIRE -48 416 -48 352
WIRE 112 416 112 368
WIRE 112 416 -48 416
WIRE 320 416 112 416
WIRE 352 416 352 368
WIRE 352 416 320 416
WIRE 560 416 560 240
WIRE 560 416 352 416
WIRE 320 512 320 416
FLAG 240 208 b
FLAG 352 128 c
FLAG 368 272 e
FLAG 320 512 0
SYMBOL res 96 48 R0
SYMATTR InstName R1
SYMATTR Value 100k
SYMBOL res 96 272 R0
SYMATTR InstName R2
SYMATTR Value 100k
SYMBOL cap 48 192 R90
WINDOW 0 0 32 VBottom 2
WINDOW 3 32 32 VTop 2
SYMATTR InstName C1
SYMATTR Value 10µ
SYMBOL BC550 288 160 R0
SYMATTR InstName Q1
SYMBOL res 336 272 R0
SYMATTR InstName R3
SYMATTR Value 1k
SYMBOL Overige\ componenten\\voltage -48 256 R0
WINDOW 123 24 132 Left 0
WINDOW 39 0 0 Left 0
SYMATTR InstName V1
SYMATTR Value ""
SYMATTR Value2 AC 1
SYMBOL Overige\ componenten\\voltage 560 144 R0
WINDOW 123 0 0 Left 0
WINDOW 39 0 0 Left 0
SYMATTR InstName V2
SYMATTR Value 10
TEXT -240 104 Left 2 !.ac dec 1000 5 50000
TEXT -312 248 Left 2 !;tran 0 1 0
