Version 4
SHEET 1 880 680
WIRE 352 -128 112 -128
WIRE 560 -128 352 -128
WIRE 352 112 352 -128
WIRE 352 112 256 112
WIRE 352 128 352 112
WIRE -16 160 -48 160
WIRE 112 160 112 -48
WIRE 112 160 48 160
WIRE 192 160 112 160
WIRE 352 160 352 128
WIRE 560 160 560 -128
WIRE 288 208 256 208
WIRE -48 272 -48 160
WIRE 352 272 352 256
WIRE 368 272 352 272
WIRE 592 272 368 272
WIRE 768 272 656 272
WIRE 112 288 112 160
WIRE 352 288 352 272
WIRE 768 320 768 272
WIRE -48 416 -48 352
WIRE 112 416 112 368
WIRE 112 416 -48 416
WIRE 320 416 112 416
WIRE 352 416 352 368
WIRE 352 416 320 416
WIRE 560 416 560 240
WIRE 560 416 352 416
WIRE 768 480 768 400
WIRE 320 512 320 416
FLAG 352 128 c
FLAG 368 272 e
FLAG 320 512 0
FLAG 768 480 0
SYMBOL res 96 -144 R0
SYMATTR InstName R1
SYMATTR Value 1k
SYMBOL res 96 272 R0
SYMATTR InstName R2
SYMATTR Value 1.63k
SYMBOL cap 48 144 R90
WINDOW 0 0 32 VBottom 2
WINDOW 3 32 32 VTop 2
SYMATTR InstName C1
SYMATTR Value 100µ
SYMBOL res 336 272 R0
SYMATTR InstName R3
SYMATTR Value 80
SYMBOL Overige\ componenten\\voltage -48 256 R0
WINDOW 123 24 132 Left 0
WINDOW 39 0 0 Left 0
WINDOW 3 24 44 Left 0
SYMATTR Value2 AC 1
SYMATTR Value SINE(0 4 1000)
SYMATTR InstName V1
SYMBOL Overige\ componenten\\voltage 560 144 R0
WINDOW 123 0 0 Left 0
WINDOW 39 0 0 Left 0
SYMATTR InstName V2
SYMATTR Value 10
SYMBOL MJE3055 288 160 R0
SYMATTR InstName Q1
SYMBOL BC550 192 112 R0
SYMATTR InstName Q2
SYMBOL res 752 304 R0
SYMATTR InstName R4
SYMATTR Value 4
SYMBOL cap 656 256 R90
WINDOW 0 0 32 VBottom 2
WINDOW 3 32 32 VTop 2
SYMATTR InstName C2
SYMATTR Value 1m
TEXT -240 104 Left 2 !;ac dec 1000 5 50000
TEXT -312 248 Left 2 !.tran 0 0.001 0
