Version 4
SHEET 1 880 692
WIRE 352 -32 112 -32
WIRE 560 -32 352 -32
WIRE 112 64 112 -32
WIRE 352 128 352 -32
WIRE 352 160 352 128
WIRE 560 160 560 -32
WIRE -16 208 -48 208
WIRE 112 208 112 144
WIRE 112 208 48 208
WIRE 240 208 112 208
WIRE 288 208 240 208
WIRE 352 272 352 256
WIRE 112 288 112 208
WIRE -48 336 -48 208
WIRE 352 336 352 272
WIRE 384 336 352 336
WIRE 528 336 448 336
WIRE 656 336 528 336
WIRE 656 400 656 336
WIRE 352 432 352 336
WIRE -48 576 -48 416
WIRE 112 576 112 368
WIRE 112 576 -48 576
WIRE 320 576 112 576
WIRE 352 576 352 512
WIRE 352 576 320 576
WIRE 560 576 560 240
WIRE 560 576 352 576
WIRE 656 576 656 480
WIRE 656 576 560 576
WIRE 320 672 320 576
FLAG 240 208 b
FLAG 352 128 c
FLAG 320 672 0
FLAG 352 272 e
FLAG -48 208 in
FLAG 528 336 out
SYMBOL res 96 48 R0
SYMATTR InstName Rb1
SYMATTR Value 150k
SYMBOL res 96 272 R0
SYMATTR InstName Rb2
SYMATTR Value 150k
SYMBOL cap 48 192 R90
WINDOW 0 0 32 VBottom 2
WINDOW 3 32 32 VTop 2
SYMATTR InstName Cin
SYMATTR Value 10µ
SYMBOL BC550 288 160 R0
SYMATTR InstName Q1
SYMBOL Overige\ componenten\\voltage 560 144 R0
WINDOW 123 0 0 Left 0
WINDOW 39 0 0 Left 0
SYMATTR InstName V2
SYMATTR Value 10
SYMBOL res 336 416 R0
SYMATTR InstName Re
SYMATTR Value 4.4k
SYMBOL cap 448 320 R90
WINDOW 0 0 32 VBottom 2
WINDOW 3 32 32 VTop 2
SYMATTR InstName Cout
SYMATTR Value 10µ
SYMBOL res 640 384 R0
SYMATTR InstName R1
SYMATTR Value 7k
SYMBOL Overige\ componenten\\voltage -48 320 R0
WINDOW 123 0 0 Left 0
WINDOW 39 0 0 Left 0
SYMATTR InstName Vin
SYMATTR Value SINE(0 0.141 1000)
TEXT -240 104 Left 2 !;ac dec 1000 5 50000
TEXT -312 248 Left 2 !.tran 0 1.010 1
