Version 4
SHEET 1 880 680
WIRE 192 -16 48 -16
WIRE 368 -16 192 -16
WIRE 48 0 48 -16
WIRE 192 0 192 -16
WIRE 192 96 192 80
WIRE 272 96 192 96
WIRE 368 128 368 -16
WIRE -32 144 -48 144
WIRE 48 144 48 80
WIRE 48 144 32 144
WIRE 128 144 48 144
WIRE -48 208 -48 144
WIRE 192 208 192 192
WIRE 256 208 192 208
WIRE 48 224 48 144
WIRE 192 224 192 208
WIRE 256 240 256 208
WIRE -48 352 -48 288
WIRE 48 352 48 304
WIRE 48 352 -48 352
WIRE 192 352 192 304
WIRE 192 352 48 352
WIRE 256 352 256 304
WIRE 256 352 192 352
WIRE 368 352 368 208
WIRE 368 352 256 352
SYMBOL Overige\ componenten\\voltage -48 192 R0
SYMATTR InstName V1
SYMBOL Overige\ componenten\\voltage -48 192 R0
SYMATTR InstName V2
SYMBOL res 32 208 R0
SYMATTR InstName R1
SYMBOL cap 32 128 R90
WINDOW 0 0 32 VBottom 2
WINDOW 3 32 32 VTop 2
SYMATTR InstName C1
SYMBOL res 32 -16 R0
SYMATTR InstName R2
SYMBOL BC550 128 96 R0
SYMATTR InstName Q1
SYMBOL res 176 -16 R0
SYMATTR InstName R3
SYMBOL res 176 208 R0
SYMATTR InstName R4
SYMBOL cap 240 240 R0
SYMATTR InstName C2
SYMBOL Overige\ componenten\\voltage 368 112 R0
SYMATTR InstName V3
