Version 4
SHEET 1 880 692
WIRE 352 -32 112 -32
WIRE 560 -32 352 -32
WIRE 352 0 352 -32
WIRE 112 16 112 -32
WIRE 352 112 352 80
WIRE 384 112 352 112
WIRE 480 112 448 112
WIRE 352 128 352 112
WIRE 352 160 352 128
WIRE 560 160 560 -32
WIRE 480 192 480 112
WIRE -16 208 -48 208
WIRE 112 208 112 96
WIRE 112 208 48 208
WIRE 240 208 112 208
WIRE 288 208 240 208
WIRE -48 272 -48 208
WIRE 352 272 352 256
WIRE 112 288 112 208
WIRE 352 432 352 272
WIRE -48 576 -48 352
WIRE 112 576 112 368
WIRE 112 576 -48 576
WIRE 320 576 112 576
WIRE 352 576 352 512
WIRE 352 576 320 576
WIRE 480 576 480 272
WIRE 480 576 352 576
WIRE 560 576 560 240
WIRE 560 576 480 576
WIRE 320 672 320 576
FLAG 240 208 b
FLAG 352 128 c
FLAG 320 672 0
FLAG 352 272 e
FLAG -48 208 in
FLAG 480 112 out
SYMBOL res 96 0 R0
SYMATTR InstName Rb1
SYMATTR Value 50.6k
SYMBOL res 96 272 R0
SYMATTR InstName Rb2
SYMATTR Value 10k
SYMBOL cap 48 192 R90
WINDOW 0 0 32 VBottom 2
WINDOW 3 32 32 VTop 2
SYMATTR InstName C1
SYMATTR Value 10µ
SYMBOL BC550 288 160 R0
SYMATTR InstName Q1
SYMBOL Overige\ componenten\\voltage -48 256 R0
WINDOW 123 24 132 Left 0
WINDOW 39 0 0 Left 0
WINDOW 3 24 44 Left 0
SYMATTR Value2 AC 1
SYMATTR Value SINE(0 0.141 1000)
SYMATTR InstName V1
SYMBOL Overige\ componenten\\voltage 560 144 R0
WINDOW 123 0 0 Left 0
WINDOW 39 0 0 Left 0
SYMATTR InstName V2
SYMATTR Value 10
SYMBOL res 336 -16 R0
SYMATTR InstName Rc
SYMATTR Value 1k
SYMBOL cap 448 96 R90
WINDOW 0 0 32 VBottom 2
WINDOW 3 32 32 VTop 2
SYMATTR InstName C2
SYMATTR Value 10µ
SYMBOL res 464 176 R0
SYMATTR InstName R5
SYMATTR Value 50k
SYMBOL res 336 416 R0
SYMATTR InstName R1
SYMATTR Value 1k
TEXT -240 104 Left 2 !.ac dec 1000 5 50000
TEXT -312 248 Left 2 !;tran 0 1.010 1
