Version 4
SHEET 1 1220 680
WIRE 432 -288 144 -288
WIRE 816 -288 432 -288
WIRE 144 -224 144 -288
WIRE 432 -208 432 -288
WIRE 432 -208 320 -208
WIRE 256 -160 208 -160
WIRE 432 -144 432 -208
WIRE 144 -96 144 -144
WIRE 208 -96 208 -160
WIRE 208 -96 144 -96
WIRE 320 -96 320 -112
WIRE 368 -96 320 -96
WIRE 144 0 144 -96
WIRE 816 32 816 -288
WIRE 432 48 432 -48
WIRE 544 48 432 48
WIRE 640 48 608 48
WIRE 432 144 432 48
WIRE -48 192 -128 192
WIRE 144 192 144 80
WIRE 144 192 16 192
WIRE 224 192 144 192
WIRE 368 192 336 192
WIRE 336 208 336 192
WIRE -128 240 -128 192
WIRE 144 240 144 192
WIRE 224 256 224 192
WIRE 272 256 224 256
WIRE 432 304 432 240
WIRE 432 304 336 304
WIRE -128 368 -128 320
WIRE 144 368 144 320
WIRE 144 368 -128 368
WIRE 432 368 432 304
WIRE 432 368 144 368
WIRE 640 368 640 240
WIRE 640 368 432 368
WIRE 816 368 816 112
WIRE 816 368 640 368
WIRE 432 416 432 368
FLAG 432 416 0
FLAG 640 48 Vout
FLAG -128 192 in
SYMBOL MJE2955 368 144 R0
SYMATTR InstName Qd
SYMBOL MJE3055 368 -144 R0
SYMATTR InstName Qu
SYMBOL res 128 224 R0
SYMATTR InstName Rb2
SYMATTR Value 20k
SYMBOL res 128 -240 R0
SYMATTR InstName Rb1
SYMATTR Value 20k
SYMBOL Overige\ componenten\\voltage 816 16 R0
SYMATTR InstName Vcc
SYMATTR Value 10
SYMBOL cap 608 32 R90
WINDOW 0 0 32 VBottom 2
WINDOW 3 32 32 VTop 2
SYMATTR InstName Cout
SYMATTR Value 4m
SYMBOL cap 16 176 R90
WINDOW 0 0 32 VBottom 2
WINDOW 3 32 32 VTop 2
SYMATTR InstName Cin
SYMATTR Value 100µ
SYMBOL Overige\ componenten\\voltage -128 224 R0
WINDOW 123 24 132 Left 0
WINDOW 39 0 0 Left 0
SYMATTR Value2 AC 1
SYMATTR InstName Vin
SYMATTR Value SINE(0 4 1k)
SYMBOL BC550 256 -208 R0
SYMATTR InstName Q1
SYMBOL BC560 272 208 R0
SYMATTR InstName Q2
SYMBOL Overige\ componenten\\voltage 144 -16 R0
WINDOW 123 0 0 Left 0
WINDOW 39 0 0 Left 0
SYMATTR InstName V1
SYMATTR Value 2.76
SYMBOL res 624 144 R0
SYMATTR InstName Rl
SYMATTR Value 4
TEXT -264 -168 Left 2 !.tran 0 1.01 1
TEXT -272 -216 Left 2 !;ac dec 1000 10 100k
